tests/golden/phase8/export_nodeorder.txt
Element, Nterminals, Nconductors, Node-1, Node-2, Node-3, ...
"Vsource.source", 2, 3, 1, 2, 3, 0, 0, 0
"Transformer.sub", 2, 4, 1, 2, 3, 0, 1, 2, 3, 0
"Transformer.reg1", 2, 2, 1, 0, 1, 0
"Transformer.reg2", 2, 2, 2, 0, 2, 0
"Transformer.reg3", 2, 2, 3, 0, 3, 0
"Transformer.xfm1", 2, 4, 1, 2, 3, 0, 1, 2, 3, 0
"Capacitor.cap1", 2, 3, 1, 2, 3, 0, 0, 0
"Capacitor.cap2", 2, 1, 3, 0
"Line.650632", 2, 3, 1, 2, 3, 1, 2, 3
"Line.632670", 2, 3, 1, 2, 3, 1, 2, 3
"Line.670671", 2, 3, 1, 2, 3, 1, 2, 3
"Line.671680", 2, 3, 1, 2, 3, 1, 2, 3
"Line.632633", 2, 3, 1, 2, 3, 1, 2, 3
"Line.632645", 2, 2, 3, 2, 3, 2
"Line.645646", 2, 2, 3, 2, 3, 2
"Line.692675", 2, 3, 1, 2, 3, 1, 2, 3
"Line.671684", 2, 2, 1, 3, 1, 3
"Line.684611", 2, 1, 3, 3
"Line.684652", 2, 1, 1, 1
"Line.671692", 2, 3, 1, 2, 3, 1, 2, 3
"Load.671", 1, 3, 1, 2, 3
"Load.634a", 1, 2, 1, 0
"Load.634b", 1, 2, 2, 0
"Load.634c", 1, 2, 3, 0
"Load.645", 1, 2, 2, 0
"Load.646", 1, 2, 2, 3
"Load.692", 1, 2, 3, 1
"Load.675a", 1, 2, 1, 0
"Load.675b", 1, 2, 2, 0
"Load.675c", 1, 2, 3, 0
"Load.611", 1, 2, 3, 0
"Load.652", 1, 2, 1, 0
"Load.670a", 1, 2, 1, 0
"Load.670b", 1, 2, 2, 0
"Load.670c", 1, 2, 3, 0
